* Schematics Netlist *
.include "../Models/MOSIS.txt"

VVdd Vdd 0 DC 1.8 
CC1 0 Vout 0.6p
MN1 Vout Vin 0 0 ibm0p13nmos W=2.5u L=0.12u
MP1 Vout Vin Vdd Vdd ibm0p13pmos W=6.5u L=0.13u
VVPul1 Vin 0 pulse(0 1.8 0.9n 0.2n 0.2n 1.8n 4.0n)

.tran 2p 8n 0n 

.end

.control
run 
set color0 = white
set xbrushwidth = 5
plot V(Vin) V(Vout)
.endc
